%nproc=8
%mem=1gb
%chk=ps.chk
#opt b3lyp/6-31g(d) scf=tight

10
propanal2.pdb

0 1 
C         -0.30000        0.84500        0.02000
H          0.27400        0.02500        0.40100
O          0.27800        1.90000       -0.34900
C         -1.83300        0.73300       -0.07500
H         -2.10600       -0.28900       -0.23700
H         -2.27300        1.08000        0.83600
C         -2.33800        1.59100       -1.25000
H         -3.40300        1.51300       -1.31600
H         -2.06400        2.61300       -1.08800
H         -1.89700        1.24400       -2.16100

